<?xml version="1.0" encoding="utf-8"?>
<!DOCTYPE network SYSTEM "http://www.matsim.org/files/dtd/network_v1.dtd">

<network name="basic network">
    <nodes>
        <node id="1" x="0" y="0"/>
        <node id="2" x="500" y="0"/>
        <node id="3" x="1000" y="500"/>
        <node id="4" x="1000" y="-500"/>
        <node id="5" x="1500" y="0" />
        <node id="6" x="2000" y="0" />
    </nodes>
    <links capperiod="01:00:00" effectivecellsize="7.5" effectivelanewidth="3.75">
        <link id="1" from="1" to="2" length="500" capacity="2000" freespeed="15" permlanes="1" modes="car" />
        <link id="2" from="2" to="3" length="750" capacity="2000" freespeed="15" permlanes="1" modes="car" />
        <link id="3" from="2" to="4" length="750" capacity="1000" freespeed="10" permlanes="1" modes="car"  />
        <link id="4" from="3" to="5" length="750" capacity="2000" freespeed="15" permlanes="1" modes="car"  />
        <link id="5" from="4" to="5" length="750" capacity="1000" freespeed="10" permlanes="1" modes="car"  />
        <link id="6" from="5" to="6" length="500" capacity="2000" freespeed="15" permlanes="1" modes="car" />
        <link id="7" from="6" to="1" length="4000" capacity="1000" freespeed="10" permlanes="1" modes="car" />    </links>
</network>
