<?xml version="1.0" encoding="utf-8"?>
<!DOCTYPE population SYSTEM "http://www.matsim.org/files/dtd/population_v6.dtd">

<population>

    <!-- ====================================================================== -->

    <person id="1">
        <plan>
            <activity type="h" x="-2500.0" y="0.0" end_time="06:00:00" >
            </activity>
            <leg mode="car">
            </leg>
            <activity type="w" x="30000.0" y="0.0" end_time="17:00:00" >
            </activity>
            <leg mode="car">
            </leg>
            <activity type="h" x="-2500.0" y="0.0" >
            </activity>
        </plan>

    </person>

    <person id="2">
        <plan>
            <activity type="h" x="-2500.0" y="0.0" end_time="06:00:00" >
            </activity>
            <leg mode="car">
            </leg>
            <activity type="w" x="30000.0" y="0.0" end_time="17:00:00" >
            </activity>
            <leg mode="car">
            </leg>
            <activity type="h" x="-2500.0" y="0.0" >
            </activity>
        </plan>

    </person>

    <person id="3">
        <plan>
            <activity type="h" x="-2500.0" y="0.0" end_time="06:00:00" >
            </activity>
            <leg mode="car">
            </leg>
            <activity type="w" x="30000.0" y="0.0" end_time="17:00:00" >
            </activity>
            <leg mode="car">
            </leg>
            <activity type="h" x="-2500.0" y="0.0" >
            </activity>
        </plan>

    </person>

    <person id="4">
        <plan>
            <activity type="h" x="-2500.0" y="0.0" end_time="06:00:00" >
            </activity>
            <leg mode="car">
            </leg>
            <activity type="w" x="30000.0" y="0.0" end_time="17:00:00" >
            </activity>
            <leg mode="car">
            </leg>
            <activity type="h" x="-2500.0" y="0.0" >
            </activity>
        </plan>

    </person>

    <person id="5">
        <plan>
            <activity type="h" x="-2500.0" y="0.0" end_time="06:00:00" >
            </activity>
            <leg mode="car">
            </leg>
            <activity type="w" x="30000.0" y="0.0" end_time="17:00:00" >
            </activity>
            <leg mode="car">
            </leg>
            <activity type="h" x="-2500.0" y="0.0" >
            </activity>
        </plan>

    </person>

    <!-- ====================================================================== -->

</population>