<?xml version="1.0" encoding="utf-8"?>
<!DOCTYPE population SYSTEM "http://www.matsim.org/files/dtd/population_v6.dtd">

<population>



<!-- ====================================================================== -->

	<person id="1">
		<plan selected="yes">
			<activity type="home" x="1290681.9547583149" y="6157329.016880215" end_time="07:53:06" >
			</activity>
			<leg mode="car">
			</leg>
			<activity type="work" x="1287371.7988901762" y="6157722.096400919" end_time="16:51:27" >
			</activity>
			<leg mode="car">
			</leg>
		</plan>

	</person>

<!-- ====================================================================== -->

	<person id="10">
		<plan selected="yes">
			<activity type="home" x="1286867.9588146615" y="6151776.446748209" end_time="07:58:28" >
			</activity>
			<leg mode="car">
			</leg>
			<activity type="work" x="1286266.023659776" y="6155701.299150816" end_time="16:44:01" >
			</activity>
			<leg mode="car">
			</leg>
		</plan>

	</person>

<!-- ====================================================================== -->

	<person id="100">
		<plan selected="yes">
			<activity type="home" x="1287250.6426404815" y="6156540.391383509" end_time="07:58:28" >
			</activity>
			<leg mode="car">
			</leg>
			<activity type="work" x="1289157.9683250773" y="6156700.224393765" end_time="16:57:15" >
			</activity>
			<leg mode="car">
			</leg>
		</plan>

	</person>

<!-- ====================================================================== -->

	<person id="11">
		<plan selected="yes">
			<activity type="home" x="1287166.7766441316" y="6157554.287585653" end_time="07:32:42" >
			</activity>
			<leg mode="car">
			</leg>
			<activity type="work" x="1290354.332765953" y="6156894.811053886" end_time="16:59:04" >
			</activity>
			<leg mode="car">
			</leg>
		</plan>

	</person>

<!-- ====================================================================== -->

	<person id="12">
		<plan selected="yes">
			<activity type="home" x="1288903.0760722498" y="6155129.204893803" end_time="07:51:20" >
			</activity>
			<leg mode="car">
			</leg>
			<activity type="work" x="1286947.310092243" y="6158035.171447559" end_time="16:14:30" >
			</activity>
			<leg mode="car">
			</leg>
		</plan>

	</person>

<!-- ====================================================================== -->

	<person id="13">
		<plan selected="yes">
			<activity type="home" x="1287868.6330422107" y="6156188.665269797" end_time="07:28:30" >
			</activity>
			<leg mode="car">
			</leg>
			<activity type="work" x="1287385.425228611" y="6152902.775504675" end_time="16:15:00" >
			</activity>
			<leg mode="car">
			</leg>
		</plan>

	</person>

<!-- ====================================================================== -->

	<person id="14">
		<plan selected="yes">
			<activity type="home" x="1292195.8004115645" y="6157051.835028609" end_time="07:41:54" >
			</activity>
			<leg mode="car">
			</leg>
			<activity type="work" x="1285788.70363253" y="6157740.436788642" end_time="16:39:09" >
			</activity>
			<leg mode="car">
			</leg>
		</plan>

	</person>

<!-- ====================================================================== -->

	<person id="15">
		<plan selected="yes">
			<activity type="home" x="1286870.1098679265" y="6157676.564162086" end_time="07:57:16" >
			</activity>
			<leg mode="car">
			</leg>
			<activity type="work" x="1291409.4508388815" y="6158654.975259807" end_time="16:27:44" >
			</activity>
			<leg mode="car">
			</leg>
		</plan>

	</person>

<!-- ====================================================================== -->

	<person id="16">
		<plan selected="yes">
			<activity type="home" x="1292120.5931953671" y="6157009.00772538" end_time="07:01:14" >
			</activity>
			<leg mode="car">
			</leg>
			<activity type="work" x="1289530.738258554" y="6157241.613594822" end_time="16:22:33" >
			</activity>
			<leg mode="car">
			</leg>
		</plan>

	</person>

<!-- ====================================================================== -->

	<person id="17">
		<plan selected="yes">
			<activity type="home" x="1291119.0252794328" y="6156192.884102227" end_time="07:23:11" >
			</activity>
			<leg mode="car">
			</leg>
			<activity type="work" x="1286070.345465916" y="6155427.483856158" end_time="16:30:13" >
			</activity>
			<leg mode="car">
			</leg>
		</plan>

	</person>

<!-- ====================================================================== -->

	<person id="18">
		<plan selected="yes">
			<activity type="home" x="1289185.6390938733" y="6156809.902247956" end_time="07:30:49" >
			</activity>
			<leg mode="car">
			</leg>
			<activity type="work" x="1288932.1238648219" y="6157934.498333653" end_time="16:41:05" >
			</activity>
			<leg mode="car">
			</leg>
		</plan>

	</person>

<!-- ====================================================================== -->

	<person id="19">
		<plan selected="yes">
			<activity type="home" x="1292376.3881604879" y="6155152.594201465" end_time="07:00:31" >
			</activity>
			<leg mode="car">
			</leg>
			<activity type="work" x="1286797.7972576134" y="6157561.654627928" end_time="16:24:14" >
			</activity>
			<leg mode="car">
			</leg>
		</plan>

	</person>

<!-- ====================================================================== -->

	<person id="2">
		<plan selected="yes">
			<activity type="home" x="1291607.2264608543" y="6151296.189456765" end_time="07:37:12" >
			</activity>
			<leg mode="car">
			</leg>
			<activity type="work" x="1291568.6467541975" y="6154003.861943014" end_time="16:51:35" >
			</activity>
			<leg mode="car">
			</leg>
		</plan>

	</person>

<!-- ====================================================================== -->

	<person id="20">
		<plan selected="yes">
			<activity type="home" x="1284684.7442716355" y="6156595.757868518" end_time="07:22:30" >
			</activity>
			<leg mode="car">
			</leg>
			<activity type="work" x="1291597.879421082" y="6153257.833232328" end_time="16:04:09" >
			</activity>
			<leg mode="car">
			</leg>
		</plan>

	</person>

<!-- ====================================================================== -->

	<person id="21">
		<plan selected="yes">
			<activity type="home" x="1289278.9066212473" y="6155107.000371785" end_time="07:43:44" >
			</activity>
			<leg mode="car">
			</leg>
			<activity type="work" x="1284553.294725387" y="6152273.503971809" end_time="16:07:28" >
			</activity>
			<leg mode="car">
			</leg>
		</plan>

	</person>

<!-- ====================================================================== -->

	<person id="22">
		<plan selected="yes">
			<activity type="home" x="1287489.3073755843" y="6154846.746817546" end_time="07:20:22" >
			</activity>
			<leg mode="car">
			</leg>
			<activity type="work" x="1289555.5038674416" y="6156734.703882297" end_time="16:04:59" >
			</activity>
			<leg mode="car">
			</leg>
		</plan>

	</person>

<!-- ====================================================================== -->

	<person id="23">
		<plan selected="yes">
			<activity type="home" x="1286170.9972875686" y="6154507.963508082" end_time="07:30:10" >
			</activity>
			<leg mode="car">
			</leg>
			<activity type="work" x="1285110.577248106" y="6157141.506247545" end_time="16:57:46" >
			</activity>
			<leg mode="car">
			</leg>
		</plan>

	</person>

<!-- ====================================================================== -->

	<person id="24">
		<plan selected="yes">
			<activity type="home" x="1290812.970611064" y="6155682.739428789" end_time="07:49:33" >
			</activity>
			<leg mode="car">
			</leg>
			<activity type="work" x="1288604.5526924971" y="6157448.877274912" end_time="16:00:18" >
			</activity>
			<leg mode="car">
			</leg>
		</plan>

	</person>

<!-- ====================================================================== -->

	<person id="25">
		<plan selected="yes">
			<activity type="home" x="1290368.3867522401" y="6152554.2086540125" end_time="07:54:27" >
			</activity>
			<leg mode="car">
			</leg>
			<activity type="work" x="1285458.4417593917" y="6157763.0499581555" end_time="16:44:53" >
			</activity>
			<leg mode="car">
			</leg>
		</plan>

	</person>

<!-- ====================================================================== -->

	<person id="26">
		<plan selected="yes">
			<activity type="home" x="1289385.5022096578" y="6152098.82648267" end_time="07:10:31" >
			</activity>
			<leg mode="car">
			</leg>
			<activity type="work" x="1291579.780128914" y="6158589.9631856885" end_time="16:04:01" >
			</activity>
			<leg mode="car">
			</leg>
		</plan>

	</person>

<!-- ====================================================================== -->

	<person id="27">
		<plan selected="yes">
			<activity type="home" x="1289216.7389351132" y="6154984.960355728" end_time="07:22:19" >
			</activity>
			<leg mode="car">
			</leg>
			<activity type="work" x="1287527.7849658234" y="6155313.861365815" end_time="16:51:49" >
			</activity>
			<leg mode="car">
			</leg>
		</plan>

	</person>

<!-- ====================================================================== -->

	<person id="28">
		<plan selected="yes">
			<activity type="home" x="1286845.7957059867" y="6153800.136390625" end_time="07:56:59" >
			</activity>
			<leg mode="car">
			</leg>
			<activity type="work" x="1291890.432377842" y="6155086.054595791" end_time="16:56:10" >
			</activity>
			<leg mode="car">
			</leg>
		</plan>

	</person>

<!-- ====================================================================== -->

	<person id="29">
		<plan selected="yes">
			<activity type="home" x="1288415.7278461915" y="6156913.955554127" end_time="07:04:08" >
			</activity>
			<leg mode="car">
			</leg>
			<activity type="work" x="1285021.348904637" y="6156865.124335944" end_time="16:30:53" >
			</activity>
			<leg mode="car">
			</leg>
		</plan>

	</person>

<!-- ====================================================================== -->

	<person id="3">
		<plan selected="yes">
			<activity type="home" x="1286861.1578786063" y="6151076.988483543" end_time="07:20:36" >
			</activity>
			<leg mode="car">
			</leg>
			<activity type="work" x="1290181.6236106167" y="6156819.381030199" end_time="16:09:08" >
			</activity>
			<leg mode="car">
			</leg>
		</plan>

	</person>

<!-- ====================================================================== -->

	<person id="30">
		<plan selected="yes">
			<activity type="home" x="1291765.6370626087" y="6153192.514253294" end_time="07:37:32" >
			</activity>
			<leg mode="car">
			</leg>
			<activity type="work" x="1291240.350965427" y="6156360.092065295" end_time="16:21:59" >
			</activity>
			<leg mode="car">
			</leg>
		</plan>

	</person>

<!-- ====================================================================== -->

	<person id="31">
		<plan selected="yes">
			<activity type="home" x="1284895.43160066" y="6154625.25729945" end_time="07:44:28" >
			</activity>
			<leg mode="car">
			</leg>
			<activity type="work" x="1290416.436128917" y="6158704.067588257" end_time="16:16:51" >
			</activity>
			<leg mode="car">
			</leg>
		</plan>

	</person>

<!-- ====================================================================== -->

	<person id="32">
		<plan selected="yes">
			<activity type="home" x="1288574.193366871" y="6151626.375974461" end_time="07:44:51" >
			</activity>
			<leg mode="car">
			</leg>
			<activity type="work" x="1288333.4764352613" y="6155595.57661089" end_time="16:36:41" >
			</activity>
			<leg mode="car">
			</leg>
		</plan>

	</person>

<!-- ====================================================================== -->

	<person id="33">
		<plan selected="yes">
			<activity type="home" x="1287206.8433553139" y="6154831.6314379005" end_time="07:24:03" >
			</activity>
			<leg mode="car">
			</leg>
			<activity type="work" x="1284565.5293546207" y="6153275.284146144" end_time="16:21:21" >
			</activity>
			<leg mode="car">
			</leg>
		</plan>

	</person>

<!-- ====================================================================== -->

	<person id="34">
		<plan selected="yes">
			<activity type="home" x="1291864.7256329218" y="6154022.340264216" end_time="07:48:28" >
			</activity>
			<leg mode="car">
			</leg>
			<activity type="work" x="1285691.4644717297" y="6156730.58175331" end_time="16:24:48" >
			</activity>
			<leg mode="car">
			</leg>
		</plan>

	</person>

<!-- ====================================================================== -->

	<person id="35">
		<plan selected="yes">
			<activity type="home" x="1289327.1288383782" y="6153838.217492312" end_time="07:51:13" >
			</activity>
			<leg mode="car">
			</leg>
			<activity type="work" x="1286531.2724836324" y="6151924.580302679" end_time="16:34:46" >
			</activity>
			<leg mode="car">
			</leg>
		</plan>

	</person>

<!-- ====================================================================== -->

	<person id="36">
		<plan selected="yes">
			<activity type="home" x="1291325.9039818165" y="6151389.048457029" end_time="07:09:46" >
			</activity>
			<leg mode="car">
			</leg>
			<activity type="work" x="1289142.9090244446" y="6153554.080140035" end_time="16:39:20" >
			</activity>
			<leg mode="car">
			</leg>
		</plan>

	</person>

<!-- ====================================================================== -->

	<person id="37">
		<plan selected="yes">
			<activity type="home" x="1287617.7042989144" y="6153840.634408048" end_time="07:57:21" >
			</activity>
			<leg mode="car">
			</leg>
			<activity type="work" x="1289811.7371937335" y="6155466.5450577475" end_time="16:26:16" >
			</activity>
			<leg mode="car">
			</leg>
		</plan>

	</person>

<!-- ====================================================================== -->

	<person id="38">
		<plan selected="yes">
			<activity type="home" x="1290397.2844148164" y="6153857.504434" end_time="07:12:24" >
			</activity>
			<leg mode="car">
			</leg>
			<activity type="work" x="1286414.534035181" y="6152577.5344592575" end_time="16:21:33" >
			</activity>
			<leg mode="car">
			</leg>
		</plan>

	</person>

<!-- ====================================================================== -->

	<person id="39">
		<plan selected="yes">
			<activity type="home" x="1291195.5377309937" y="6153896.665031618" end_time="07:46:04" >
			</activity>
			<leg mode="car">
			</leg>
			<activity type="work" x="1290097.9451355299" y="6153576.1632160265" end_time="16:44:28" >
			</activity>
			<leg mode="car">
			</leg>
		</plan>

	</person>

<!-- ====================================================================== -->

	<person id="4">
		<plan selected="yes">
			<activity type="home" x="1287065.083365039" y="6152462.180214223" end_time="07:23:31" >
			</activity>
			<leg mode="car">
			</leg>
			<activity type="work" x="1291661.812644541" y="6154377.647049209" end_time="16:01:05" >
			</activity>
			<leg mode="car">
			</leg>
		</plan>

	</person>

<!-- ====================================================================== -->

	<person id="40">
		<plan selected="yes">
			<activity type="home" x="1285869.9391008231" y="6152331.34495421" end_time="07:18:32" >
			</activity>
			<leg mode="car">
			</leg>
			<activity type="work" x="1287178.0263744649" y="6157081.224428915" end_time="16:12:21" >
			</activity>
			<leg mode="car">
			</leg>
		</plan>

	</person>

<!-- ====================================================================== -->

	<person id="41">
		<plan selected="yes">
			<activity type="home" x="1286445.5191032118" y="6151842.891770635" end_time="07:32:16" >
			</activity>
			<leg mode="car">
			</leg>
			<activity type="work" x="1284788.373533392" y="6156962.385859937" end_time="16:20:38" >
			</activity>
			<leg mode="car">
			</leg>
		</plan>

	</person>

<!-- ====================================================================== -->

	<person id="42">
		<plan selected="yes">
			<activity type="home" x="1291481.7506110545" y="6154254.605347679" end_time="07:06:42" >
			</activity>
			<leg mode="car">
			</leg>
			<activity type="work" x="1288451.9307522466" y="6155150.90769883" end_time="16:27:11" >
			</activity>
			<leg mode="car">
			</leg>
		</plan>

	</person>

<!-- ====================================================================== -->

	<person id="43">
		<plan selected="yes">
			<activity type="home" x="1288167.1241564618" y="6156556.014537271" end_time="07:16:55" >
			</activity>
			<leg mode="car">
			</leg>
			<activity type="work" x="1286546.7242420698" y="6157364.010339063" end_time="16:26:30" >
			</activity>
			<leg mode="car">
			</leg>
		</plan>

	</person>

<!-- ====================================================================== -->

	<person id="44">
		<plan selected="yes">
			<activity type="home" x="1287314.9586462362" y="6158129.033406389" end_time="07:09:27" >
			</activity>
			<leg mode="car">
			</leg>
			<activity type="work" x="1288369.695396682" y="6153881.002835009" end_time="16:38:45" >
			</activity>
			<leg mode="car">
			</leg>
		</plan>

	</person>

<!-- ====================================================================== -->

	<person id="45">
		<plan selected="yes">
			<activity type="home" x="1284661.6749273564" y="6152932.281390715" end_time="07:19:46" >
			</activity>
			<leg mode="car">
			</leg>
			<activity type="work" x="1285774.9701855415" y="6157889.408015398" end_time="16:36:41" >
			</activity>
			<leg mode="car">
			</leg>
		</plan>

	</person>

<!-- ====================================================================== -->

	<person id="46">
		<plan selected="yes">
			<activity type="home" x="1289212.8825782202" y="6158192.666428892" end_time="07:20:47" >
			</activity>
			<leg mode="car">
			</leg>
			<activity type="work" x="1289293.2607358817" y="6153808.814393521" end_time="16:16:54" >
			</activity>
			<leg mode="car">
			</leg>
		</plan>

	</person>

<!-- ====================================================================== -->

	<person id="47">
		<plan selected="yes">
			<activity type="home" x="1288286.4462797826" y="6152139.78041926" end_time="07:56:27" >
			</activity>
			<leg mode="car">
			</leg>
			<activity type="work" x="1290249.0993818291" y="6157638.694479803" end_time="16:25:12" >
			</activity>
			<leg mode="car">
			</leg>
		</plan>

	</person>

<!-- ====================================================================== -->

	<person id="48">
		<plan selected="yes">
			<activity type="home" x="1291417.9529652265" y="6152622.877540385" end_time="07:04:08" >
			</activity>
			<leg mode="car">
			</leg>
			<activity type="work" x="1289287.8671903934" y="6152025.441059887" end_time="16:11:17" >
			</activity>
			<leg mode="car">
			</leg>
		</plan>

	</person>

<!-- ====================================================================== -->

	<person id="49">
		<plan selected="yes">
			<activity type="home" x="1290233.6950980555" y="6154142.326029669" end_time="07:37:30" >
			</activity>
			<leg mode="car">
			</leg>
			<activity type="work" x="1291606.6368187568" y="6151410.999438505" end_time="16:54:30" >
			</activity>
			<leg mode="car">
			</leg>
		</plan>

	</person>

<!-- ====================================================================== -->

	<person id="5">
		<plan selected="yes">
			<activity type="home" x="1285453.984841364" y="6154681.6256423965" end_time="07:59:25" >
			</activity>
			<leg mode="car">
			</leg>
			<activity type="work" x="1291736.1727136127" y="6152184.286849304" end_time="16:20:09" >
			</activity>
			<leg mode="car">
			</leg>
		</plan>

	</person>

<!-- ====================================================================== -->

	<person id="50">
		<plan selected="yes">
			<activity type="home" x="1288378.7474189645" y="6158531.748633992" end_time="07:40:04" >
			</activity>
			<leg mode="car">
			</leg>
			<activity type="work" x="1286343.7403899564" y="6153125.460670499" end_time="16:54:46" >
			</activity>
			<leg mode="car">
			</leg>
		</plan>

	</person>

<!-- ====================================================================== -->

	<person id="51">
		<plan selected="yes">
			<activity type="home" x="1289536.5988006792" y="6155361.303891202" end_time="07:05:17" >
			</activity>
			<leg mode="car">
			</leg>
			<activity type="work" x="1285607.7193087405" y="6154397.122061781" end_time="16:31:16" >
			</activity>
			<leg mode="car">
			</leg>
		</plan>

	</person>

<!-- ====================================================================== -->

	<person id="52">
		<plan selected="yes">
			<activity type="home" x="1284530.9127663071" y="6151725.1547352" end_time="07:47:41" >
			</activity>
			<leg mode="car">
			</leg>
			<activity type="work" x="1286899.6269358825" y="6152445.282857755" end_time="16:59:26" >
			</activity>
			<leg mode="car">
			</leg>
		</plan>

	</person>

<!-- ====================================================================== -->

	<person id="53">
		<plan selected="yes">
			<activity type="home" x="1287999.1764897176" y="6155062.268766012" end_time="07:08:45" >
			</activity>
			<leg mode="car">
			</leg>
			<activity type="work" x="1287915.2247771162" y="6155591.059053773" end_time="16:36:18" >
			</activity>
			<leg mode="car">
			</leg>
		</plan>

	</person>

<!-- ====================================================================== -->

	<person id="54">
		<plan selected="yes">
			<activity type="home" x="1286050.234394453" y="6158515.254204349" end_time="07:27:11" >
			</activity>
			<leg mode="car">
			</leg>
			<activity type="work" x="1285356.9225661736" y="6155376.689172724" end_time="16:13:50" >
			</activity>
			<leg mode="car">
			</leg>
		</plan>

	</person>

<!-- ====================================================================== -->

	<person id="55">
		<plan selected="yes">
			<activity type="home" x="1286819.630817444" y="6151376.825697565" end_time="07:28:59" >
			</activity>
			<leg mode="car">
			</leg>
			<activity type="work" x="1288710.615631416" y="6152294.586885351" end_time="16:03:32" >
			</activity>
			<leg mode="car">
			</leg>
		</plan>

	</person>

<!-- ====================================================================== -->

	<person id="56">
		<plan selected="yes">
			<activity type="home" x="1286459.1290006852" y="6156421.002411702" end_time="07:12:28" >
			</activity>
			<leg mode="car">
			</leg>
			<activity type="work" x="1290061.7678625404" y="6153686.7455559075" end_time="16:39:18" >
			</activity>
			<leg mode="car">
			</leg>
		</plan>

	</person>

<!-- ====================================================================== -->

	<person id="57">
		<plan selected="yes">
			<activity type="home" x="1292174.4794465587" y="6154353.181870257" end_time="07:04:04" >
			</activity>
			<leg mode="car">
			</leg>
			<activity type="work" x="1284493.3562557457" y="6158147.981226649" end_time="16:27:04" >
			</activity>
			<leg mode="car">
			</leg>
		</plan>

	</person>

<!-- ====================================================================== -->

	<person id="58">
		<plan selected="yes">
			<activity type="home" x="1288631.885219415" y="6154336.160924149" end_time="07:08:57" >
			</activity>
			<leg mode="car">
			</leg>
			<activity type="work" x="1287272.7716612273" y="6156018.577053342" end_time="16:13:03" >
			</activity>
			<leg mode="car">
			</leg>
		</plan>

	</person>

<!-- ====================================================================== -->

	<person id="59">
		<plan selected="yes">
			<activity type="home" x="1287199.2128053259" y="6154809.3232079735" end_time="07:05:04" >
			</activity>
			<leg mode="car">
			</leg>
			<activity type="work" x="1285455.8021623685" y="6156691.4829963315" end_time="16:52:03" >
			</activity>
			<leg mode="car">
			</leg>
		</plan>

	</person>

<!-- ====================================================================== -->

	<person id="6">
		<plan selected="yes">
			<activity type="home" x="1286781.5335636765" y="6157938.299392306" end_time="07:53:24" >
			</activity>
			<leg mode="car">
			</leg>
			<activity type="work" x="1285174.1952169447" y="6157671.962972345" end_time="16:23:47" >
			</activity>
			<leg mode="car">
			</leg>
		</plan>

	</person>

<!-- ====================================================================== -->

	<person id="60">
		<plan selected="yes">
			<activity type="home" x="1289368.354517768" y="6158304.67430114" end_time="07:37:18" >
			</activity>
			<leg mode="car">
			</leg>
			<activity type="work" x="1286037.3004615896" y="6153261.341085164" end_time="16:33:12" >
			</activity>
			<leg mode="car">
			</leg>
		</plan>

	</person>

<!-- ====================================================================== -->

	<person id="61">
		<plan selected="yes">
			<activity type="home" x="1291221.969991938" y="6151755.302797837" end_time="07:48:56" >
			</activity>
			<leg mode="car">
			</leg>
			<activity type="work" x="1284660.2961127798" y="6156594.526312432" end_time="16:46:38" >
			</activity>
			<leg mode="car">
			</leg>
		</plan>

	</person>

<!-- ====================================================================== -->

	<person id="62">
		<plan selected="yes">
			<activity type="home" x="1290233.7915330948" y="6157689.833187424" end_time="07:55:08" >
			</activity>
			<leg mode="car">
			</leg>
			<activity type="work" x="1284907.7758052591" y="6156828.634369827" end_time="16:14:54" >
			</activity>
			<leg mode="car">
			</leg>
		</plan>

	</person>

<!-- ====================================================================== -->

	<person id="63">
		<plan selected="yes">
			<activity type="home" x="1290190.5349695517" y="6155858.416930917" end_time="07:23:08" >
			</activity>
			<leg mode="car">
			</leg>
			<activity type="work" x="1286867.8328997395" y="6156196.277494203" end_time="16:16:46" >
			</activity>
			<leg mode="car">
			</leg>
		</plan>

	</person>

<!-- ====================================================================== -->

	<person id="64">
		<plan selected="yes">
			<activity type="home" x="1290722.859684843" y="6152612.113893329" end_time="07:45:29" >
			</activity>
			<leg mode="car">
			</leg>
			<activity type="work" x="1286914.2610924107" y="6156496.2931628395" end_time="16:22:48" >
			</activity>
			<leg mode="car">
			</leg>
		</plan>

	</person>

<!-- ====================================================================== -->

	<person id="65">
		<plan selected="yes">
			<activity type="home" x="1287109.5211493168" y="6156388.4718578225" end_time="07:31:02" >
			</activity>
			<leg mode="car">
			</leg>
			<activity type="work" x="1284773.7618660303" y="6157159.882806966" end_time="16:20:12" >
			</activity>
			<leg mode="car">
			</leg>
		</plan>

	</person>

<!-- ====================================================================== -->

	<person id="66">
		<plan selected="yes">
			<activity type="home" x="1289746.800509041" y="6157778.118405768" end_time="07:55:33" >
			</activity>
			<leg mode="car">
			</leg>
			<activity type="work" x="1287729.224684625" y="6151490.475449988" end_time="16:20:12" >
			</activity>
			<leg mode="car">
			</leg>
		</plan>

	</person>

<!-- ====================================================================== -->

	<person id="67">
		<plan selected="yes">
			<activity type="home" x="1287325.3685875654" y="6153901.3570929915" end_time="07:45:44" >
			</activity>
			<leg mode="car">
			</leg>
			<activity type="work" x="1288721.7064291418" y="6158124.910601083" end_time="16:04:17" >
			</activity>
			<leg mode="car">
			</leg>
		</plan>

	</person>

<!-- ====================================================================== -->

	<person id="68">
		<plan selected="yes">
			<activity type="home" x="1284475.5802916212" y="6152122.884385898" end_time="07:04:29" >
			</activity>
			<leg mode="car">
			</leg>
			<activity type="work" x="1292223.3866731124" y="6154604.651440153" end_time="16:53:07" >
			</activity>
			<leg mode="car">
			</leg>
		</plan>

	</person>

<!-- ====================================================================== -->

	<person id="69">
		<plan selected="yes">
			<activity type="home" x="1289235.4887550576" y="6155019.728753318" end_time="07:50:11" >
			</activity>
			<leg mode="car">
			</leg>
			<activity type="work" x="1289929.5941553942" y="6152779.869116975" end_time="16:04:40" >
			</activity>
			<leg mode="car">
			</leg>
		</plan>

	</person>

<!-- ====================================================================== -->

	<person id="7">
		<plan selected="yes">
			<activity type="home" x="1290650.4019653634" y="6155924.430532818" end_time="07:59:06" >
			</activity>
			<leg mode="car">
			</leg>
			<activity type="work" x="1292006.480984376" y="6152766.293322964" end_time="16:47:42" >
			</activity>
			<leg mode="car">
			</leg>
		</plan>

	</person>

<!-- ====================================================================== -->

	<person id="70">
		<plan selected="yes">
			<activity type="home" x="1289023.1004088272" y="6155141.812547628" end_time="07:44:32" >
			</activity>
			<leg mode="car">
			</leg>
			<activity type="work" x="1288486.65351621" y="6157015.30738481" end_time="16:48:29" >
			</activity>
			<leg mode="car">
			</leg>
		</plan>

	</person>

<!-- ====================================================================== -->

	<person id="71">
		<plan selected="yes">
			<activity type="home" x="1287248.8163015584" y="6157571.737308906" end_time="07:31:03" >
			</activity>
			<leg mode="car">
			</leg>
			<activity type="work" x="1285381.0514550463" y="6155240.343454849" end_time="16:36:56" >
			</activity>
			<leg mode="car">
			</leg>
		</plan>

	</person>

<!-- ====================================================================== -->

	<person id="72">
		<plan selected="yes">
			<activity type="home" x="1288193.876937709" y="6153349.357497815" end_time="07:10:56" >
			</activity>
			<leg mode="car">
			</leg>
			<activity type="work" x="1285254.8415643913" y="6155331.239341509" end_time="16:16:39" >
			</activity>
			<leg mode="car">
			</leg>
		</plan>

	</person>

<!-- ====================================================================== -->
